13
Bi1 N3 O9
Bi -0.168754 0.103309 -0.601068
N -1.452579 0.996969 1.671974
O -1.906613 1.312382 2.719561
O -0.390479 0.236458 1.599985
O -1.916359 1.339852 0.548706
N 2.088604 1.559729 0.184556
O 3.081561 2.106988 0.537575
O 0.991304 2.160371 -0.042657
O 2.046745 0.279049 -0.004926
N -0.824031 -2.516641 0.135921
O -1.024602 -3.638619 0.469313
O 0.376482 -2.057305 -0.023988
O -1.745220 -1.672049 -0.097571

