12
H7 C3 O2
C 0.176759 1.375401 -1.103002
O -0.360854 1.303467 0.199478
C 0.116371 0.181732 0.937905
C -0.424316 -1.182400 0.469692
O -0.012243 -1.583710 -0.739877
H -0.357301 2.178463 -1.632969
H 0.068076 0.407769 -1.616372
H 1.254892 1.634064 -1.063965
H 1.224795 0.157201 0.882670
H -0.185248 0.371242 1.983577
H -0.134072 -1.874726 1.329216
H -1.549458 -1.089137 0.581674

